-------------------------------------------------------
          Amber 16 PMEMD                              2016
          -------------------------------------------------------

  [-O]verwriting output

File Assignments:

 Here is the input file:

Explicit solvent molecular dynamics
 &cntrl
   imin=0, irest=1, ntx=5,
   ntpr=1000, ntwx=1000, nstlim=500000,
   dt=0.002, ntt=3, tempi=300,
   temp0=300, gamma_ln=1.0, ig=-1,
   ntp=1, ntc=2, ntf=2, cut=8,
   ntb=2, iwrap=1, ioutfm=1,
   barostat=2, pres0=1.0,
 /

Note: ig = -1. Setting random seed to   423734 based on wallclock time in
      microseconds.

--------------------------------------------------------------------------------
   1.  RESOURCE   USE:
--------------------------------------------------------------------------------

 getting box info from netcdf restart file
 NATOM  =   76983 NTYPES =      21 NBONH =   74021 MBONA  =    2221
 NTHETH =    2158 MTHETA =    3331 NPHIH =    4520 MPHIA  =    5175
 NHPARM =       0 NPARM  =       0 NNB   =  113070 NRES   =   25244
 NBONA  =    2221 NTHETA =    3331 NPHIA =    5175 NUMBND =      69
 NUMANG =     155 NPTRA  =     191 NATYP =      39 NPHB   =       1
 IFBOX  =       2 NMXRS  =      24 IFCAP =       0 NEXTRA =       0
 NCOPY  =       0

     BOX TYPE: TRUNCATED OCTAHEDRON

--------------------------------------------------------------------------------
   2.  CONTROL  DATA  FOR  THE  RUN
--------------------------------------------------------------------------------

default_name

General flags:
     imin    =       0, nmropt  =       0

Nature and format of input:
     ntx     =       5, irest   =       1, ntrx    =       1

Nature and format of output:
     ntxo    =       2, ntpr    =    1000, ntrx    =       1, ntwr    =  500000
     iwrap   =       1, ntwx    =    1000, ntwv    =       0, ntwe    =       0
     ioutfm  =       1, ntwprt  =       0, idecomp =       0, rbornstat=      0

Potential function:
     ntf     =       2, ntb     =       2, igb     =       0, nsnb    =      25
     ipol    =       0, gbsa    =       0, iesp    =       0
     dielc   =   1.00000, cut     =   8.00000, intdiel =   1.00000

Frozen or restrained atoms:
     ibelly  =       0, ntr     =       0

Molecular dynamics:
     nstlim  =    500000, nscm    =      1000, nrespa  =         1
     t       =   0.00000, dt      =   0.00200, vlimit  =  -1.00000

Langevin dynamics temperature regulation:
     ig      =  423734
     temp0   = 300.00000, tempi   = 300.00000, gamma_ln=   1.00000

Pressure regulation:
     ntp     =       1
     pres0   =   1.00000, comp    =  44.60000, taup    =   1.00000
     Monte-Carlo Barostat:
     mcbarint  =     100

SHAKE:
     ntc     =       2, jfastw  =       0
     tol     =   0.00001

Ewald parameters:
     verbose =       0, ew_type =       0, nbflag  =       1, use_pme =       1
     vdwmeth =       1, eedmeth =       1, netfrc  =       1
     Box X =  107.902   Box Y =  107.902   Box Z =  107.902
     Alpha =  109.471   Beta  =  109.471   Gamma =  109.471
     NFFT1 =  108       NFFT2 =  108       NFFT3 =  108
     Cutoff=    8.000   Tol   =0.100E-04
     Ewald Coefficient =  0.34864
     Interpolation order =    4

--------------------------------------------------------------------------------
   3.  ATOMIC COORDINATES AND VELOCITIES
--------------------------------------------------------------------------------

default_name
 begin time read from input coords =   400.000 ps

 Number of triangulated 3-point waters found:    24354

     Sum of charges from parm topology file =  -0.24485084
     Assuming uniform neutralizing plasma

--------------------------------------------------------------------------------
   4.  RESULTS
 NSTEP =     1000   TIME(PS) =     402.000  TEMP(K) =   300.76  PRESS =     0.0
 Etot   =   -291025.9435  EKtot   =     46895.2852  EPtot      =   -337921.2287
 BOND   =      1065.4614  ANGLE   =      3602.3262  DIHED      =      2337.7280
 1-4 NB =       480.8582  1-4 EEL =    -60500.3364  VDWAALS    =     37451.7375
 EELEC  =   -322359.0036  EHBOND  =         0.0000  RESTRAINT  =         0.0000
 EKCMT  =         0.0000  VIRIAL  =         0.0000  VOLUME     =    935290.0787
                                                    Density    =         0.8759
 ------------------------------------------------------------------------------

      A V E R A G E S   O V E R     500 S T E P S

 NSTEP =   500000   TIME(PS) =    1400.000  TEMP(K) =   300.09  PRESS =     0.0
 Etot   =   -295227.4958  EKtot   =     46791.3323  EPtot      =   -342018.8281
 BOND   =      1052.6038  ANGLE   =      3608.6337  DIHED      =      2321.3963
 1-4 NB =       497.7641  1-4 EEL =    -60455.9075  VDWAALS    =     36041.6454
 EELEC  =   -325084.9638  EHBOND  =         0.0000  RESTRAINT  =         0.0000
 EKCMT  =         0.0000  VIRIAL  =         0.0000  VOLUME     =    771640.2438
                                                    Density    =         1.0623
 ------------------------------------------------------------------------------

      R M S  F L U C T U A T I O N S

 NSTEP =   500000   TIME(PS) =    1400.000  TEMP(K) =     1.05  PRESS =     0.0
 Etot   =       619.1373  EKtot   =       163.1484  EPtot      =       595.9024
 BOND   =        29.4233  ANGLE   =        38.5591  DIHED      =        13.8578
 1-4 NB =         9.8695  1-4 EEL =        87.3238  VDWAALS    =       284.2280
 EELEC  =       662.8093  EHBOND  =         0.0000  RESTRAINT  =         0.0000
 EKCMT  =         0.0000  VIRIAL  =         0.0000  VOLUME     =     19580.0325
                                                    Density    =         0.0234
 ------------------------------------------------------------------------------
